resources/powernetworkdata/ieee9matpower.txt
 08/20/93 UW ARCHIVE           100.0  1961 W IEEE 30 Bus Test Case
BUS DATA FOLLOWS                            9 ITEMS
   1 Bus 1    132  1  1  3   345    0.0      0        0.0      250   -16.1   132.0  1.060     0.0     0.0   0.0    0.0        0
   2 Bus 2    132  1  1  2   345  -5.48      0       12.7      300    50.0   132.0  1.045    50.0   -40.0   0.0    0.0        0
   3 Bus 3    132  1  1  0   345  -7.96      0        1.2      270     0.0   132.0  0.0       0.0     0.0   0.0    0.0        0
   4 Bus 4    132  1  1  0   345  -9.62      0        1.6      0.0     0.0   132.0  0.0       0.0     0.0   0.0    0.0        0
   5 Bus 5    132  1  1  2   345 -14.37      90      19.0      0.0    37.0   132.0  1.010    40.0   -40.0   0.0    0.0        0
   6 Bus 6    132  1  1  0   345 -11.34      0        0.0      0.0     0.0   132.0  0.0       0.0     0.0   0.0    0.0        0
   7 Bus 7    132  1  1  0   345 -13.12      100     10.9      0.0     0.0   132.0  0.0       0.0     0.0   0.0    0.0        0
   8 Bus 8    132  1  1  2   345 -12.10      0       30.0      0.0    37.3   132.0  1.010    40.0   -10.0   0.0    0.0        0
   9 Bus 9    1.0  1  1  0   345 -14.38      125      0.0     90.0     0.0     1.0  0.0       0.0     0.0   0.0    0.0        0
-999
BRANCH DATA FOLLOWS                         9 ITEMS
   1    4  1  1 1 0  0         0.0576      0.0528   250     0     0    0 0  0.0       0.0 0.0    0.0     0.0    0.0   0.0
   4    5  1  1 1 0  0.017     0.092       0.0408   250     0     0    0 0  0.0       0.0 0.0    0.0     0.0    0.0   0.0
   5    6  1  1 1 0  0.039     0.17        0.0368   150     0     0    0 0  0.0       0.0 0.0    0.0     0.0    0.0   0.0
   3    6  1  1 1 0  0         0.0586      0.0084   300     0     0    0 0  0.0       0.0 0.0    0.0     0.0    0.0   0.0
   6    7  1  1 1 0  0.0119    0.1008      0.0418   150     0     0    0 0  0.0       0.0 0.0    0.0     0.0    0.0   0.0
   7    8  1  1 1 0  0.0085    0.072       0.0374   250     0     0    0 0  0.0       0.0 0.0    0.0     0.0    0.0   0.0
   8    2  1  1 1 0  0         0.0625      0.0090   250     0     0    0 0  0.0       0.0 0.0    0.0     0.0    0.0   0.0
   8    9  1  1 1 0  0.032     0.161       0.0204   250     0     0    0 0  0.0       0.0 0.0    0.0     0.0    0.0   0.0
   9    4  1  1 1 0  0.01      0.085       0.0170   250     0     0    0 0  0.0       0.0 0.0    0.0     0.0    0.0   0.0
-999
LOSS ZONES FOLLOWS                     1 ITEMS
  1 IEEE 30 BUS
-99
INTERCHANGE DATA FOLLOWS                 1 ITEMS
-9
 1    2 Claytor  132    0.0  999.99  IEEE30  IEEE 30 Bus Test Case
TIE LINES FOLLOWS                     0 ITEMS
-999
END OF DATA
